pcf
* control data
restart estimation
10 64 10 0 4
4 4 double point 1 0 0
 5.0   2.0   0.3  0.03    10
 3.0 2 0.001
 0.1
  30  0.01     3     3  0.01     3
   1     1     1
* parameter groups
katm1g2 relative 0.01  0.0  switch  2.0 parabolic
katm2g2 relative 0.01  0.0  switch  2.0 parabolic
katm3g2 relative 0.01  0.0  switch  2.0 parabolic
katm4g2 relative 0.01  0.0  switch  2.0 parabolic
katr1g2 relative 0.01  0.0  switch  2.0 parabolic
katr2g2 relative 0.01  0.0  switch  2.0 parabolic
katr3g2 relative 0.01  0.0  switch  2.0 parabolic
katr4g2 relative 0.01  0.0  switch  2.0 parabolic
pcomplex relative 0.01  0.0  switch  2.0 parabolic
phrsimple relative 0.01  0.0  switch  2.0 parabolic
* parameter data
katm1g2 none factor 0.023 0.001 0.051 katm1g2 1.0      0.0000      1
katm2g2 none factor 0.000015 0.00001 0.0001 katm2g2 1.0      0.0000      1
katm3g2 none factor 3.2 2.5 4 katm3g2 1.0      0.0000      1
katm4g2 none factor 0.59 0.288 1.5 katm4g2 1.0      0.0000      1
katr1g2 none factor 0.172 0.1 0.3 katr1g2 1.0      0.0000      1
katr2g2 none factor 0.013 0.005 0.05 katr2g2 1.0      0.0000      1
katr3g2 none factor 1.01 0.5 2 katr3g2 1.0      0.0000      1
katr4g2 none factor 0.000001 0.0000005 0.00001 katr4g2 1.0      0.0000      1
pcomplex none factor 0.7 0.5 1 pcomplex 1.0      0.0000      1
phrsimple none factor 0.95 0.5 1 phrsimple 1.0      0.0000      1
* observation groups
SF11-2Gobgp
SF11-6Gobgp
SF35-2Gobgp
SF35-6Gobgp
* observation data
SF11-2GH10P1 31.8106035345115 0.1 SF11-2Gobgp
SF11-2GH10P2 53.5511837279093 0.1 SF11-2Gobgp
SF11-2GH10P3 12.6408802934311 0.1 SF11-2Gobgp
SF11-2GH10P4 1.4971657219073 1 SF11-2Gobgp
SF11-2GH15P1 28.8971102889711 0.1 SF11-2Gobgp
SF11-2GH15P2 54.7611905476119 0.1 SF11-2Gobgp
SF11-2GH15P3 14.8085191480852 0.1 SF11-2Gobgp
SF11-2GH15P4 0.25664100256641 1 SF11-2Gobgp
SF11-2GH25P1 28.3496568725431 0.1 SF11-2Gobgp
SF11-2GH25P2 50.2698380971417 0.1 SF11-2Gobgp
SF11-2GH25P3 20.7109067892598 0.1 SF11-2Gobgp
SF11-2GH25P4 0.209874075554667 1 SF11-2Gobgp
SF11-2GH35P1 25.4302166894118 0.1 SF11-2Gobgp
SF11-2GH35P2 50.8937190027627 0.1 SF11-2Gobgp
SF11-2GH35P3 22.8905235828646 0.1 SF11-2Gobgp
SF11-2GH35P4 0.376127550510934 1 SF11-2Gobgp
SF11-2GH45P1 25.5486625308518 0.1 SF11-2Gobgp
SF11-2GH45P2 49.9633113201254 0.1 SF11-2Gobgp
SF11-2GH45P3 23.1638983390034 0.1 SF11-2Gobgp
SF11-2GH45P4 1.11733706890801 1 SF11-2Gobgp
SF11-6GH10P1 29.3568810396534 0.1 SF11-6Gobgp
SF11-6GH10P2 54.481839386871 0.1 SF11-6Gobgp
SF11-6GH10P3 14.5218260579807 0.1 SF11-6Gobgp
SF11-6GH10P4 1.10629790069977 1 SF11-6Gobgp
SF11-6GH15P1 27.9592108770994 0.1 SF11-6Gobgp
SF11-6GH15P2 55.751799520128 0.1 SF11-6Gobgp
SF11-6GH15P3 15.6158357771261 0.1 SF11-6Gobgp
SF11-6GH15P4 0.179952012796588 1 SF11-6Gobgp
SF11-6GH25P1 27.3278677597814 0.1 SF11-6Gobgp
SF11-6GH25P2 51.5230287275878 0.1 SF11-6Gobgp
SF11-6GH25P3 20.7668466306739 0.1 SF11-6Gobgp
SF11-6GH25P4 6.23208691595014E-02 1 SF11-6Gobgp
SF11-6GH35P1 24.7774035415347 0.1 SF11-6Gobgp
SF11-6GH35P2 54.6903658251909 0.1 SF11-6Gobgp
SF11-6GH35P3 20.2841231200187 0.1 SF11-6Gobgp
SF11-6GH35P4 0.058025144229166 1 SF11-6Gobgp
SF11-6GH45P1 23.1310202313102 0.1 SF11-6Gobgp
SF11-6GH45P2 50.5616105056161 0.1 SF11-6Gobgp
SF11-6GH45P3 25.8107522581075 0.1 SF11-6Gobgp
SF11-6GH45P4 0.21997800219978 1 SF11-6Gobgp
SF35-2GH05P1 31 0.1 SF35-2Gobgp
SF35-2GH05P2 46.4482858803022 0.1 SF35-2Gobgp
SF35-2GH05P3 24.2337303893085 0.1 SF35-2Gobgp
SF35-2GH05P4 2.02280650784428 1 SF35-2Gobgp
SF35-2GH08P1 32.6312270143765 0.1 SF35-2Gobgp
SF35-2GH08P2 37.8468739551989 0.1 SF35-2Gobgp
SF35-2GH08P3 27.4256101638248 0.1 SF35-2Gobgp
SF35-2GH08P4 1.66165162153126 1 SF35-2Gobgp
SF35-2GH11P1 43.9648548424816 0.1 SF35-2Gobgp
SF35-2GH11P2 25.6573013062506 0.1 SF35-2Gobgp
SF35-2GH11P3 28.1796011091438 0.1 SF35-2Gobgp
SF35-2GH11P4 1.78732502589116 1 SF35-2Gobgp
SF35-6GH05P1 27.3980378931059 0.1 SF35-6Gobgp
SF35-6GH05P2 51.5403674442523 0.1 SF35-6Gobgp
SF35-6GH05P3 20.5860942853136 0.1 SF35-6Gobgp
SF35-6GH05P4 0.191001556061628 1 SF35-6Gobgp
SF35-6GH08P1 26.2603989175103 0.1 SF35-6Gobgp
SF35-6GH08P2 40.7270054458588 0.1 SF35-6Gobgp
SF35-6GH08P3 32.2608666599846 0.1 SF35-6Gobgp
SF35-6GH08P4 0.414286191573953 1 SF35-6Gobgp
SF35-6GH11P1 31.2867033183983 0.1 SF35-6Gobgp
SF35-6GH11P2 24.1928197852427 0.1 SF35-6Gobgp
SF35-6GH11P3 43.6708839581193 0.1 SF35-6Gobgp
SF35-6GH11P4 0.732811553660879 1 SF35-6Gobgp
* model command line
drm_monolayer.bat > nul
* model input/output
SF11-2G.tpl SF11-2G.inp
SF11-6G.tpl SF11-6G.inp
SF35-2G.tpl SF35-2G.inp
SF35-6G.tpl SF35-6G.inp
SF11-2G_out.ins SF11-2G_out.dat
SF11-6G_out.ins SF11-6G_out.dat
SF35-2G_out.ins SF35-2G_out.dat
SF35-6G_out.ins SF35-6G_out.dat
* prior information
