pcf
* control data
restart estimation
12 64 12 0 4
4 4 double point 1 0 0
 5.0   2.0   0.3  0.03    10
 3.0 2 0.001
 0.1
  30  0.01     3     3  0.01     3
   1     1     1
* parameter groups
katm1g1 relative 0.01  0.0  switch  2.0 parabolic
katm1g2 relative 0.01  0.0  switch  2.0 parabolic
katm2g1 relative 0.01  0.0  switch  2.0 parabolic
katm2g2 relative 0.01  0.0  switch  2.0 parabolic
katm3g1 relative 0.01  0.0  switch  2.0 parabolic
katm3g2 relative 0.01  0.0  switch  2.0 parabolic
katm4g1 relative 0.01  0.0  switch  2.0 parabolic
katm4g2 relative 0.01  0.0  switch  2.0 parabolic
katr1g2 relative 0.01  0.0  switch  2.0 parabolic
katr2g2 relative 0.01  0.0  switch  2.0 parabolic
katr3g2 relative 0.01  0.0  switch  2.0 parabolic
katr4g2 relative 0.01  0.0  switch  2.0 parabolic
* parameter data
katm1g1 none factor 0.169 0.001 0.3 katm1g1 1.0      0.0000      1
katm1g2 none factor 29.9 20 40 katm1g2 1.0      0.0000      1
katm2g1 none factor 0.00006 0.00001 0.0001 katm2g1 1.0      0.0000      1
katm2g2 none factor 0.0001 0.00001 0.0004 katm2g2 1.0      0.0000      1
katm3g1 none factor 10.74 4 15 katm3g1 1.0      0.0000      1
katm3g2 none factor 1.45 0.01 4 katm3g2 1.0      0.0000      1
katm4g1 none factor 1.085 0.1 3 katm4g1 1.0      0.0000      1
katm4g2 none factor 0.554 0.01 3 katm4g2 1.0      0.0000      1
katr1g2 none factor 0.0678 0.001 0.2 katr1g2 1.0      0.0000      1
katr2g2 none factor 0.291 0.01 0.5 katr2g2 1.0      0.0000      1
katr3g2 none factor 8.05 3 15 katr3g2 1.0      0.0000      1
katr4g2 none factor 0.157 0.01 0.3 katr4g2 1.0      0.0000      1
* observation groups
SF11-2Gobgp
SF11-6Gobgp
SF35-2Gobgp
SF35-6Gobgp
* observation data
SF11-2GH05P1 32 0.176776695296637 SF11-2Gobgp
SF11-2GH05P2 53.8 0.136335470787303 SF11-2Gobgp
SF11-2GH05P3 12.7 0.280606766633157 SF11-2Gobgp
SF11-2GH05P4 1.5 0.816496580927726 SF11-2Gobgp
SF11-2GH10P1 29.3 0.184742233484292 SF11-2Gobgp
SF11-2GH10P2 55.44 0.134303827337563 SF11-2Gobgp
SF11-2GH10P3 15 0.258198889747161 SF11-2Gobgp
SF11-2GH10P4 0.26 1.96116135138184 SF11-2Gobgp
SF11-2GH20P1 28.5 0.187317162316339 SF11-2Gobgp
SF11-2GH20P2 50.49 0.14073344364025 SF11-2Gobgp
SF11-2GH20P3 20.8 0.219264504826757 SF11-2Gobgp
SF11-2GH20P4 0.21 2.18217890235992 SF11-2Gobgp
SF11-2GH30P1 25.6 0.197642353760524 SF11-2Gobgp
SF11-2GH30P2 51.12 0.139863559716115 SF11-2Gobgp
SF11-2GH30P3 22.9 0.208969189764286 SF11-2Gobgp
SF11-2GH30P4 0.38 1.62221421130763 SF11-2Gobgp
SF11-2GH40P1 25.6 0.197642353760524 SF11-2Gobgp
SF11-2GH40P2 50.13 0.141237866202345 SF11-2Gobgp
SF11-2GH40P3 23.15 0.207837783563186 SF11-2Gobgp
SF11-2GH40P4 1.12 0.944911182523068 SF11-2Gobgp
SF11-6GH05P1 29.5 0.184114923579665 SF11-6Gobgp
SF11-6GH05P2 54.8 0.135085806739575 SF11-6Gobgp
SF11-6GH05P3 14.6 0.261711961295107 SF11-6Gobgp
SF11-6GH05P4 1.11 0.949157995752499 SF11-6Gobgp
SF11-6GH10P1 28.1 0.188645669476136 SF11-6Gobgp
SF11-6GH10P2 56.1 0.133511467458638 SF11-6Gobgp
SF11-6GH10P3 15.7 0.252377232562534 SF11-6Gobgp
SF11-6GH10P4 0.18 2.35702260395516 SF11-6Gobgp
SF11-6GH20P1 27.4 0.191040179975218 SF11-6Gobgp
SF11-6GH20P2 51.74 0.139023042198334 SF11-6Gobgp
SF11-6GH20P3 20.8 0.219264504826757 SF11-6Gobgp
SF11-6GH20P4 0.06 4.08248290463863 SF11-6Gobgp
SF11-6GH30P1 24.9 0.200401204014051 SF11-6Gobgp
SF11-6GH30P2 54.8 0.135085806739575 SF11-6Gobgp
SF11-6GH30P3 20.24 0.222277112237194 SF11-6Gobgp
SF11-6GH30P4 0.06 4.08248290463863 SF11-6Gobgp
SF11-6GH40P1 23.2 0.20761369963435 SF11-6Gobgp
SF11-6GH40P2 50.78 0.140331010250649 SF11-6Gobgp
SF11-6GH40P3 25.8 0.196874807739539 SF11-6Gobgp
SF11-6GH40P4 0.22 2.1320071635561 SF11-6Gobgp
SF35-2GH04P1 31 0.179605302026775 SF35-2Gobgp
SF35-2GH04P2 42.6 0.153212853258974 SF35-2Gobgp
SF35-2GH04P3 22.2 0.212238179989004 SF35-2Gobgp
SF35-2GH04P4 1.9 0.725476250110012 SF35-2Gobgp
SF35-2GH08P1 32.5 0.175411603861406 SF35-2Gobgp
SF35-2GH08P2 37.7 0.162865585496114 SF35-2Gobgp
SF35-2GH08P3 27.3 0.191389750587738 SF35-2Gobgp
SF35-2GH08P4 1.7 0.76696498884737 SF35-2Gobgp
SF35-2GH11P1 43.9 0.150927278118246 SF35-2Gobgp
SF35-2GH11P2 25.6 0.197642353760524 SF35-2Gobgp
SF35-2GH11P3 28.1 0.188645669476136 SF35-2Gobgp
SF35-2GH11P4 1.8 0.74535599249993 SF35-2Gobgp
SF35-6GH04P1 27.35 0.191214725630609 SF35-6Gobgp
SF35-6GH04P2 51.45 0.139414296135505 SF35-6Gobgp
SF35-6GH04P3 20.8 0.219264504826757 SF35-6Gobgp
SF35-6GH04P4 0.19 2.29415733870562 SF35-6Gobgp
SF35-6GH08P1 26.2 0.195366166291141 SF35-6Gobgp
SF35-6GH08P2 40.63 0.15688325405349 SF35-6Gobgp
SF35-6GH08P3 32.6 0.175142361026015 SF35-6Gobgp
SF35-6GH08P4 0.41 1.56173761888606 SF35-6Gobgp
SF35-6GH11P1 31.17 0.179114852129713 SF35-6Gobgp
SF35-6GH11P2 24.1 0.203700210931678 SF35-6Gobgp
SF35-6GH11P3 44.23 0.150363189822906 SF35-6Gobgp
SF35-6GH11P4 0.73 1.17041147196131 SF35-6Gobgp
* model command line
drm_monolayer.bat > nul
* model input/output
SF11-2G.tpl SF11-2G.inp
SF11-6G.tpl SF11-6G.inp
SF35-2G.tpl SF35-2G.inp
SF35-6G.tpl SF35-6G.inp
SF11-2G_out.ins SF11-2G_out.dat
SF11-6G_out.ins SF11-6G_out.dat
SF35-2G_out.ins SF35-2G_out.dat
SF35-6G_out.ins SF35-6G_out.dat
* prior information
